wang_Power_elem_kVA.txt

CIRCUIT ELEMENT POWER FLOW

(Power Flow into element from indicated Bus)

Power Delivery Elements

  Bus Phase     kW     +j   kvar         kVA         PF

ELEMENT = "Vsource.SOURCE"
B1       1      -686.4 +j    -11.6      686.5       0.9999
B1       2      -686.4 +j    -11.6      686.5       0.9999
B1       3      -686.4 +j    -11.6      686.5       0.9999
   TERMINAL TOTAL -2059.2 +j    -34.7     2059.5       0.9999
B1       0         0.0 +j      0.0        0.0       1.0000
B1       0         0.0 +j      0.0        0.0       1.0000
B1       0         0.0 +j      0.0        0.0       1.0000
   TERMINAL TOTAL     0.0 +j      0.0        0.0       1.0000

ELEMENT = "Line.LINE12"
B1       1       686.4 +j     11.6      686.5       0.9999
B1       2       686.4 +j     11.6      686.5       0.9999
B1       3       686.4 +j     11.6      686.5       0.9999
   TERMINAL TOTAL  2059.2 +j     34.7     2059.5       0.9999
B2       1      -686.4 +j    -11.3      686.5       0.9999
B2       2      -686.4 +j    -11.3      686.5       0.9999
B2       3      -686.4 +j    -11.3      686.5       0.9999
   TERMINAL TOTAL -2059.2 +j    -34.0     2059.5       0.9999

ELEMENT = "Line.LINE23"
B2       1       686.4 +j     11.3      686.5       0.9999
B2       2       686.4 +j     11.3      686.5       0.9999
B2       3       686.4 +j     11.3      686.5       0.9999
   TERMINAL TOTAL  2059.2 +j     34.0     2059.5       0.9999
B3       1      -686.4 +j     -7.8      686.5       0.9999
B3       2      -686.4 +j     -7.8      686.5       0.9999
B3       3      -686.4 +j     -7.8      686.5       0.9999
   TERMINAL TOTAL -2059.2 +j    -23.3     2059.4       0.9999

ELEMENT = "Line.LINE34"
B3       1       686.4 +j      7.8      686.5       0.9999
B3       2       686.4 +j      7.8      686.5       0.9999
B3       3       686.4 +j      7.8      686.5       0.9999
   TERMINAL TOTAL  2059.2 +j     23.3     2059.4       0.9999
B4       1      -686.4 +j     -5.5      686.4       1.0000
B4       2      -686.4 +j     -5.5      686.4       1.0000
B4       3      -686.4 +j     -5.5      686.4       1.0000
   TERMINAL TOTAL -2059.2 +j    -16.4     2059.3       1.0000

ELEMENT = "Line.LINE45"
B4       1       686.4 +j      5.5      686.4       1.0000
B4       2       686.4 +j      5.5      686.4       1.0000
B4       3       686.4 +j      5.5      686.4       1.0000
   TERMINAL TOTAL  2059.2 +j     16.4     2059.3       1.0000
B5       1      -686.4 +j     -4.1      686.4       1.0000
B5       2      -686.4 +j     -4.1      686.4       1.0000
B5       3      -686.4 +j     -4.1      686.4       1.0000
   TERMINAL TOTAL -2059.2 +j    -12.3     2059.3       1.0000

ELEMENT = "Line.LINE56"
B5       1       686.4 +j      4.1      686.4       1.0000
B5       2       686.4 +j      4.1      686.4       1.0000
B5       3       686.4 +j      4.1      686.4       1.0000
   TERMINAL TOTAL  2059.2 +j     12.3     2059.3       1.0000
B6       1      -686.4 +j     -2.7      686.4       1.0000
B6       2      -686.4 +j     -2.7      686.4       1.0000
B6       3      -686.4 +j     -2.7      686.4       1.0000
   TERMINAL TOTAL -2059.2 +j     -8.2     2059.3       1.0000

ELEMENT = "Line.LINE67"
B6       1       686.4 +j      2.7      686.4       1.0000
B6       2       686.4 +j      2.7      686.4       1.0000
B6       3       686.4 +j      2.7      686.4       1.0000
   TERMINAL TOTAL  2059.2 +j      8.2     2059.3       1.0000
B7       1      -686.4 +j     -1.1      686.4       1.0000
B7       2      -686.4 +j     -1.1      686.4       1.0000
B7       3      -686.4 +j     -1.1      686.4       1.0000
   TERMINAL TOTAL -2059.2 +j     -3.3     2059.2       1.0000

ELEMENT = "Line.LINE78"
B7       1       686.4 +j      1.1      686.4       1.0000
B7       2       686.4 +j      1.1      686.4       1.0000
B7       3       686.4 +j      1.1      686.4       1.0000
   TERMINAL TOTAL  2059.2 +j      3.3     2059.2       1.0000
B8       1      -686.4 +j     -0.0      686.4       1.0000
B8       2      -686.4 +j     -0.0      686.4       1.0000
B8       3      -686.4 +j     -0.0      686.4       1.0000
   TERMINAL TOTAL -2059.2 +j     -0.0     2059.2       1.0000

= = = = = = = = = = = = = = = = = = =  = = = = = = = = = = =  = =

Power Conversion Elements

  Bus Phase     kW   +j  kvar         kVA         PF

ELEMENT = "Load.LOAD8A"
B8       1     686.4 +j    0.0      686.4       1.0000
B8       0       0.0 +j    0.0        0.0       1.0000
  TERMINAL TOTAL    686.4 +j      0.0      686.4       1.0000

ELEMENT = "Load.LOAD8B"
B8       2     686.4 +j    0.0      686.4       1.0000
B8       0       0.0 +j    0.0        0.0       1.0000
  TERMINAL TOTAL    686.4 +j      0.0      686.4       1.0000

ELEMENT = "Load.LOAD8C"
B8       3     686.4 +j    0.0      686.4       1.0000
B8       0       0.0 +j    0.0        0.0       1.0000
  TERMINAL TOTAL    686.4 +j      0.0      686.4       1.0000


Total Circuit Losses =    0.0 +j   34.7
